[General]
network = garbage_collection.GarbageCollectionSystem
sim-time-limit = 17.9s
*.can.hasGarbage = false
*.anotherCan.hasGarbage = false
**.host[0].moveDuration = 1s
**.host[0].turtleScript = xmldoc("turtle.xml", "movements/movement[@id='emptyCans']")
**.visualizer.initialText = "Rectangular turtle patrol"

[Config EmptyCans]
description = "Collector patrol when both garbage cans are empty"
