[General]
network = garbage_collection.GarbageCollectionSystem
sim-time-limit = 17.9s
*.communicationMode = "${configname}"
*.canDelay = 0.2s
*.hostToCloudDelay = 0.6s
*.cloudToHostDelay = 0.6s
*.canToCloudDelay = 0.3s
*.cloudToCanDelay = 0.3s
*.can.hasGarbage = false
*.anotherCan.hasGarbage = false
*.can.responseDelay = 0.15s
*.anotherCan.responseDelay = 0.15s
*.can.reportStatusToCloud = false
*.anotherCan.reportStatusToCloud = false
*.can.sendCollectToCloud = false
*.anotherCan.sendCollectToCloud = false
*.can.lostQueryCount = 3
*.anotherCan.lostQueryCount = 3
*.can.collectDispatchDelay = 0.05s
*.anotherCan.collectDispatchDelay = 0.05s
*.connectHostToCloud = true
*.connectCansToCloud = true
*.cloudAckDelay = 0.6s
*.host[0].queryRetryInterval = 0.45s
*.host[0].maxQueryAttempts = 4
*.host[0].reportToCloud = false
*.host[0].hostSendsCollect = false
*.host[0].expectCloudAck = false
**.host[0].moveDuration = 1s
**.host[0].turtleScript = xmldoc("turtle.xml", "movements/movement[@id='emptyCans']")
**.visualizer.initialText = "Rectangular turtle patrol"

[Config NoGarbageInTheCans]
description = "No garbage solution: both cans empty, no cloud interaction"

[Config GarbageInTheCansAndSlow]
description = "Cloud-based solution with slow smartphone-cloud communication"
extends = NoGarbageInTheCans
*.can.hasGarbage = true
*.anotherCan.hasGarbage = true
*.connectHostToCloud = true
*.connectCansToCloud = true
*.hostToCloudDelay = 0.8s
*.cloudToHostDelay = 0.8s
*.cloudAckDelay = 0.8s
*.host[0].hostSendsCollect = true
*.host[0].expectCloudAck = true
*.can.sendCollectToCloud = false
*.anotherCan.sendCollectToCloud = false

[Config GarbageInTheCansAndFast]
description = "Fog-based solution with cans reporting directly to fast cloud links"
extends = NoGarbageInTheCans
*.can.hasGarbage = true
*.anotherCan.hasGarbage = true
*.connectCansToCloud = true
*.connectHostToCloud = true
*.canToCloudDelay = 0.12s
*.cloudToCanDelay = 0.12s
*.cloudAckDelay = 0.12s
*.can.sendCollectToCloud = true
*.anotherCan.sendCollectToCloud = true
