[General]
network = garbage_collection.GarbageCollectionSystem
sim-time-limit = 5s
*.can.hasGarbage = false
*.anotherCan.hasGarbage = false
**.host[0].moveDuration = 5s
**.host[0].turtleScript = xmldoc("move.xml", "movements/movement[@id='emptyCans']")
**.visualizer.initialText = ""

[Config EmptyCans]
description = "Collector patrol when both garbage cans are empty"
