[General]
network = garbage_collection.GarbageCollectionSystem
sim-time-limit = 17.9s
*.communicationMode = "${configname}"
*.canDelay = 0.2s
*.hostToCloudDelay = 0.6s
*.cloudToHostDelay = 0.6s
*.canToCloudDelay = 0.3s
*.cloudToCanDelay = 0.3s
*.can.hasGarbage = false
*.anotherCan.hasGarbage = false
*.can.responseDelay = 0.15s
*.anotherCan.responseDelay = 0.15s
*.can.reportStatusToCloud = false
*.anotherCan.reportStatusToCloud = false
*.can.sendCollectToCloud = false
*.anotherCan.sendCollectToCloud = false
*.can.lostQueryCount = 3
*.anotherCan.lostQueryCount = 3
*.can.collectDispatchDelay = 0.05s
*.anotherCan.collectDispatchDelay = 0.05s
*.connectHostToCloud = true
*.connectCansToCloud = true
*.cloudAckDelay = 0.6s
*.host[0].queryRetryInterval = 0.45s
*.host[0].maxQueryAttempts = 4
*.host[0].hostSendsCollect = false
*.host[0].expectCloudAck = false
*.scenarioTitle = "No garbage solution"
**.visualizer.initialText = ""
*.smartSlowOutResult = 0
*.smartSlowInResult = 0
*.smartFastOutResult = 800
*.smartFastInResult = 200
*.canOutResult = 100
*.canInResult = 100
*.anotherCanOutResult = 100
*.anotherCanInResult = 100
*.cloudSlowOutResult = 0
*.cloudSlowInResult = 0
*.cloudFastOutResult = 0
*.cloudFastInResult = 0

[Config NoGarbageInTheCans]
description = "No garbage solution: both cans empty, no cloud interaction"
*.scenarioTitle = "No garbage solution"

[Config GarbageInTheCansAndSlow]
description = "Cloud-based solution with slow smartphone-cloud communication"
extends = NoGarbageInTheCans
*.can.hasGarbage = true
*.anotherCan.hasGarbage = true
*.connectHostToCloud = true
*.connectCansToCloud = true
*.hostToCloudDelay = 0.8s
*.cloudToHostDelay = 0.8s
*.cloudAckDelay = 0.8s
*.host[0].hostSendsCollect = true
*.host[0].expectCloudAck = true
*.can.sendCollectToCloud = false
*.anotherCan.sendCollectToCloud = false
*.scenarioTitle = "Cloud-based solution with slow messages"
*.smartSlowOutResult = 400
*.smartSlowInResult = 400
*.smartFastOutResult = 800
*.smartFastInResult = 200
*.canOutResult = 100
*.canInResult = 100
*.anotherCanOutResult = 100
*.anotherCanInResult = 100
*.cloudSlowOutResult = 400
*.cloudSlowInResult = 400
*.cloudFastOutResult = 0
*.cloudFastInResult = 0

[Config GarbageInTheCansAndFast]
description = "Fog-based solution with cans reporting directly to fast cloud links"
extends = NoGarbageInTheCans
*.can.hasGarbage = true
*.anotherCan.hasGarbage = true
*.connectCansToCloud = true
*.connectHostToCloud = true
*.canToCloudDelay = 0.12s
*.cloudToCanDelay = 0.12s
*.cloudAckDelay = 0.12s
*.can.sendCollectToCloud = true
*.anotherCan.sendCollectToCloud = true
*.scenarioTitle = "Fog-based solution with fast messages"
*.smartSlowOutResult = 0
*.smartSlowInResult = 0
*.smartFastOutResult = 800
*.smartFastInResult = 200
*.canOutResult = 200
*.canInResult = 200
*.anotherCanOutResult = 200
*.anotherCanInResult = 200
*.cloudSlowOutResult = 0
*.cloudSlowInResult = 0
*.cloudFastOutResult = 200
*.cloudFastInResult = 200
